
 *****************************************
 *** Specfem3D MPI database generation ***
 *****************************************

 Running Git package version of the code: v4.1.1-226-g3d986bd3
 which is Git 3d986bd39b93e0580327562c40981c85dce6c1a9
 dating 2025-08-28 18:59:46 +0200

 This is process            0
 There are            1  MPI processes
 Processes are numbered from 0 to            0

 There is a total of            1  slices

 NGLLX =            5
 NGLLY =            5
 NGLLZ =            5

 Shape functions defined by NGNOD =            8  control nodes
 Surface shape functions defined by NGNOD2D =            4  control nodes
 Beware! Curvature (i.e. HEX27 elements) is not handled by our internal mesher

 velocity model:   default


 suppressing UTM projection

 no attenuation

 no anisotropy

 no oceans

 no absorbing condition

 using a FORCESOLUTION source instead of a CMTSOLUTION source
  with a quasi-Heaviside source time function


 ************************************
 reading partition files in the model
 ************************************

 external mesh points :        14725
 defined materials    :            1
 undefined materials  :            0
 total number of spectral elements:         1620
 absorbing boundaries:
   xmin,xmax :          108         108
   ymin,ymax :          135         135
   bottom,top:          180         180

   total number of C-PML elements in the global mesh:            0

 number of MPI partition interfaces:            0

   minimum memory used so far     :    5.82233429     MB per process
   minimum total memory requested :    26.4719124     MB per process

 create regions:

   ...allocating arrays
     NGLLX   =            5
     NGLLY   =            5
     NGLLZ   =            5
     NGNOD   =            8
     NGNOD2D =            4

     main process setup:
     nspec           =         1620

     required minimum memory per process for model setup =    18.5456085     MB
                                                         =    1.81109458E-02 GB

     separating regular/irregular element shapes
     nspec regular   =           59
     nspec irregular =         1561

     absorbing boundary faces:
       num_abs_boundary_faces =          666

     free surface faces:
       num_free_surface_faces =          180


 File DATA/Par_file_faults not found: assuming that there are no faults


   ...setting up jacobian
      mesh jacobian: min/max =   3.7037E+10 /   3.7037E+10


   ...indexing global points
      creating ibool indexing     : x min/max =    0.00000000     /   100000.000
      creating indirect addressing: nglob =       110593
      creating unique point locations

   ...preparing MPI interfaces
      number of interfaces        :            0

      total MPI interface points:            0
      total assembled MPI interface points:           0

   ...setting up absorbing boundaries
      boundary xmin   :         108
      boundary xmax   :         108
      boundary ymin   :         135
      boundary ymax   :         135
      boundary bottom :         180
      boundary top    :         180
      absorbing boundary:
      total number of free faces =          180
      total number of faces      =          666

   ...setting up mesh surface

   ...determining velocity model
               10  % - elapsed time:   1.22700003E-03 s
               20  % - elapsed time:   2.45900010E-03 s
               30  % - elapsed time:   3.67600005E-03 s
               40  % - elapsed time:   4.89200000E-03 s
               50  % - elapsed time:   6.10799994E-03 s
               60  % - elapsed time:   7.34200003E-03 s
               70  % - elapsed time:   8.56800005E-03 s
               80  % - elapsed time:   9.77000035E-03 s
               90  % - elapsed time:   1.09970002E-02 s
              100  % - elapsed time:   1.21970000E-02 s

   ...detecting acoustic-elastic-poroelastic surfaces
      total acoustic elements   :           0
      total elastic elements    :        1620
      total poroelastic elements:           0

      acoustic - elastic     coupling : total number of faces =            0
      acoustic - poroelastic coupling : total number of faces =            0
       elastic - poroelastic coupling : total number of faces =            0


   ...element inner/outer separation
      for overlapping of communications with calculations:
      percentage of   edge elements    0.00000000     %
      percentage of volume elements    100.000000     %


   ...element mesh coloring
      use coloring =  F

   ...external binary models
      no external binary model used

   ...creating mass matrix

   ...setting up mesh adjacency

      mesh adjacency:
      total number of elements in this slice          =         1620

      maximum number of neighbors allowed             =          300
      minimum array memory required per slice         =    1.86012268     (MB)

      maximum number of elements per shared node      =            8
      node-to-element array memory required per slice =    3.37503052     (MB)

               10  % - elapsed time:   1.46900001E-03 s
               20  % - elapsed time:   2.54000002E-03 s
               30  % - elapsed time:   3.83000006E-03 s
               40  % - elapsed time:   5.05199982E-03 s
               50  % - elapsed time:   6.23800000E-03 s
               60  % - elapsed time:   7.42699997E-03 s
               70  % - elapsed time:   8.58699996E-03 s
               80  % - elapsed time:   9.71799996E-03 s
               90  % - elapsed time:   1.07020000E-02 s
              100  % - elapsed time:   1.13260001E-02 s

      maximum neighbors found per element =           26
          (maximum neighbor of neighbors) =           98
      total number of neighbors           =       143694

      Elapsed time for detection of neighbors in seconds =    1.23100001E-02


   ...saving mesh databases
      using binary file format
      database file (for rank 0): OUTPUT_FILES/DATABASES_MPI/proc000000_external_mesh.bin

      saving mesh files for AVS, OpenDX, Paraview
      saving additional mesh files with surface/coupling points

   ...checking mesh resolution
 Mesh resolution:

 ********
 minimum and maximum number of elements
 and points in the CUBIT + SCOTCH mesh:

 NSPEC_global_min =         1620
 NSPEC_global_max =         1620
 NSPEC_global_max / NSPEC_global_min imbalance =    1.00000000      =    0.00000000      %
 NSPEC_global_sum =         1620

 NGLOB_global_min =       110593
 NGLOB_global_max =       110593
 NGLOB_global_max / NGLOB_global_min imbalance =    1.00000000      =    0.00000000      %
 NGLOB_global_sum =       110593

 If you have elements of a single type (all acoustic, all elastic, all poroelastic, and without CPML)
 in the whole mesh, then there should be no significant imbalance in the above numbers.
 Otherwise, it is normal to have imbalance in elements and points because the domain decomposer
 compensates for the different cost of different elements by partitioning them unevenly among processes.
 ********


 ********
 Model: P   velocity min,max =    2800.00000       2800.00000
 Model: S   velocity min,max =    1500.00000       1500.00000

 Model: Poisson's ratio min,max =   0.298747778      0.298747778
 ********

 *********************************************
 *** Verification of simulation parameters ***
 *********************************************

 *** Xmin and Xmax of the model =    0.00000000       100000.000
 *** Ymin and Ymax of the model =    0.00000000       80000.0000
 *** Zmin and Zmax of the model =   -60000.0000       0.00000000

 *** Max GLL point distance =    2182.17969
 *** Min GLL point distance =    1151.14844
 *** Max/min ratio =    1.89565444

 *** Max element size =    6666.67188
 *** Min element size =    6666.66406
 *** Max/min ratio =    1.00000119

 *** Minimum period resolved =    5.55556011
 *** Maximum suggested time step =   0.204999998

 Elapsed time for checking mesh resolution in seconds =    1.0019999999999474E-003
 saving VTK files for Courant number and minimum period


 mesh regions done

 min and max of elevation (i.e. height of the upper surface of the mesh) included in mesh in m is    0.0000000000000000          0.0000000000000000


 done mesh setup


 Repartition of elements:
 -----------------------

 load distribution:
   element loads: min/max =        66420       66420

   partition            0        has        66420  load units

   load per partition: min/max   =        66420       66420
   load per partition: imbalance =    0.00000000     %
                       (0% being totally balanced, 100% being unbalanced)

 total number of elements in mesh slice 0:         1620
 total number of   regular elements in mesh slice 0:           59
 total number of irregular elements in mesh slice 0:         1561
 total number of points in mesh slice 0:       110593

 total number of elements in entire mesh:         1620
 approximate total number of points in entire mesh (with duplicates on MPI edges):                110593
 approximate total number of DOFs   in entire mesh (with duplicates on MPI edges):                331779

 total number of time steps in the solver will be:          250

 using single precision for the calculations

 smallest and largest possible floating-point numbers are:    1.17549435E-38   3.40282347E+38


 Elapsed time for mesh generation and buffer creation in seconds =   0.627614021
 Elapsed time for mesh generation and buffer creation in hh:mm:ss =    0 h 00 m 00 s

 End of mesh generation

 done
