 **********************************************
 **** Specfem 3-D Solver - MPI version f90 ****
 **********************************************

 Running Git package version of the code: v4.1.1-226-g3d986bd3
 which is Git 3d986bd39b93e0580327562c40981c85dce6c1a9
 dating 2025-08-28 18:59:46 +0200




 There are            1  MPI processes
 Processes are numbered from 0 to            0

 There is a total of            1  slices

  NDIM =            3

  NGLLX =            5
  NGLLY =            5
  NGLLZ =            5

 using single precision for the calculations

 smallest and largest possible floating-point numbers are:    1.17549435E-38   3.40282347E+38

 velocity model:   default

 Reading mesh databases...
   reads binary mesh files: proc***_external_mesh.bin
   from directory         : OUTPUT_FILES/DATABASES_MPI

   simulation w/ acoustic    domain:  F
   simulation w/ elastic     domain:  T
   simulation w/ poroelastic domain:  F

   slice 0 has:
   number of elements acoustic   :           0
   number of elements elastic    :        1620
   number of elements poroelastic:           0
   done

   total acoustic elements    :           0
   total elastic elements     :        1620
   total poroelastic elements :           0

 Mesh resolution:

 ********
 minimum and maximum number of elements
 and points in the CUBIT + SCOTCH mesh:

 NSPEC_global_min =         1620
 NSPEC_global_max =         1620
 NSPEC_global_max / NSPEC_global_min imbalance =    1.00000000      =    0.00000000      %
 NSPEC_global_sum =         1620

 NGLOB_global_min =       110593
 NGLOB_global_max =       110593
 NGLOB_global_max / NGLOB_global_min imbalance =    1.00000000      =    0.00000000      %
 NGLOB_global_sum =       110593

 If you have elements of a single type (all acoustic, all elastic, all poroelastic, and without CPML)
 in the whole mesh, then there should be no significant imbalance in the above numbers.
 Otherwise, it is normal to have imbalance in elements and points because the domain decomposer
 compensates for the different cost of different elements by partitioning them unevenly among processes.
 ********


 ********
 Model: P   velocity min,max =    2800.00000       2800.00000
 Model: S   velocity min,max =    1500.00000       1500.00000

 Model: Poisson's ratio min,max =   0.298747778      0.298747778
 ********

 *********************************************
 *** Verification of simulation parameters ***
 *********************************************

 *** Xmin and Xmax of the model =    0.00000000       100000.000
 *** Ymin and Ymax of the model =    0.00000000       80000.0000
 *** Zmin and Zmax of the model =   -60000.0000       0.00000000

 *** Max GLL point distance =    2182.17969
 *** Min GLL point distance =    1151.14844
 *** Max/min ratio =    1.89565444

 *** Max element size =    6666.67188
 *** Min element size =    6666.66406
 *** Max/min ratio =    1.00000119

 *** Minimum period resolved =    5.55556011
 *** Maximum suggested time step =   0.204999998

 *** for DT :   0.16000000000000000
 *** Max stability for wave velocities =   0.389176577

 Elapsed time for checking mesh resolution in seconds =    7.5999999999999679E-004
 saving VTK files for Courant number and minimum period


 ******************************************
 There is a total of            1  slices
 ******************************************


 kd-tree:
   total data points:        43740
   theoretical   number of nodes:        87471
                tree memory size:    2.66940308     MB
   actual        number of nodes:        87479
                tree memory size:    2.66964722     MB
   maximum depth   :           17
   creation timing :    5.49500063E-03 (s)


 sources:            1

 ********************
  locating sources
 ********************

 reading source information from ./DATA/FORCESOLUTION file

 no UTM projection


 source #            1
   source located in slice            0
                  in element          803
                  in elastic domain

   using force point source:
     xi coordinate of source in that element:    0.0000000000000000
     eta coordinate of source in that element:    1.0000000000000000
     gamma coordinate of source in that element:   -2.9296877861023226E-007

     component of direction vector in East direction:    0.00000000
     component of direction vector in North direction:    0.00000000
     component of direction vector in Vertical direction:    1.00000000

     nu1 =    1.00000000       0.00000000       0.00000000
     nu2 =    0.00000000       1.00000000       0.00000000
     nu3 =    0.00000000       0.00000000       1.00000000

     at (x,y,z) coordinates =    50000.000000000000        40000.000000000000       -30000.000000000000

   source time function:
     using Ricker source time function

     using a source of dominant frequency   0.14999999999999999
     t0_ricker =    8.0000000000000000      tshift_src =    0.0000000000000000

     lambda_S at dominant frequency =    11547.005208333334
     lambda_S at highest significant frequency =    4618.8020833333330

     half duration in frequency:   0.14999999999999999       seconds**(-1)

     time shift:    0.0000000000000000       seconds

   magnitude of the source:
     factor =    100000000000000.00

   original (requested) position of the source:

             latitude:    40000.000000000000
            longitude:    50000.000000000000

                x:    50000.000000000000
                y:    40000.000000000000
            depth:    30.000000000000000       km
   topo elevation:    0.0000000000000000

   position of the source that will be used:

                x:    50000.000000000000
                y:    40000.000000000000
            depth:    30.000000000000000       km
                z:   -30000.000000000000

   error in location of the source:    0.00000000      m



 maximum error in location of the sources:    0.00000000      m


 Elapsed time for detection of sources in seconds =    5.15000022E-04

 End of source detection - done


 receivers:

   there are            9  stations in file ./DATA/STATIONS
   saving            9  stations inside the model in file ./DATA/STATIONS_FILTERED
   excluding            0  stations located outside the model

   Total number of receivers =            9


 ********************
  locating receivers
 ********************

 reading receiver information from ./DATA/STATIONS_FILTERED file


 station #            1     DB    X55
      original latitude:    40000.0000
      original longitude:    55000.0000
      original x:    55000.0000
      original y:    40000.0000
      original depth:    0.00000000      m
      horizontal distance:    5.00000000
      target x, y, z:    55000.0000       40000.0000       0.00000000
      closest estimate found:    0.00000000      m away

      receiver located in slice            0
                       in element         1539
                       in elastic domain
      at coordinates:
      xi    =  -0.49999970703130830
      eta   =   -1.0000000000000000
      gamma =    1.0000000000000000
      rotation matrix:
      nu1 =    1.00000000       0.00000000       0.00000000
      nu2 =    0.00000000       1.00000000       0.00000000
      nu3 =    0.00000000       0.00000000       1.00000000
      x:    55000.000000000000
      y:    40000.000000000000
      depth:    0.0000000000000000       m
      z:    0.0000000000000000



 station #            2     DB    X60
      original latitude:    41000.0000
      original longitude:    60000.0000
      original x:    60000.0000
      original y:    41000.0000
      original depth:    0.00000000      m
      horizontal distance:    10.0498753
      target x, y, z:    60000.0000       41000.0000       0.00000000
      closest estimate found:    0.00000000      m away

      receiver located in slice            0
                       in element         1540
                       in elastic domain
      at coordinates:
      xi    =   -1.0000000000000000
      eta   =  -0.70000005859373959
      gamma =    1.0000000000000000
      rotation matrix:
      nu1 =    1.00000000       0.00000000       0.00000000
      nu2 =    0.00000000       1.00000000       0.00000000
      nu3 =    0.00000000       0.00000000       1.00000000
      x:    60000.000000000000
      y:    41000.000000000000
      depth:    0.0000000000000000       m
      z:    0.0000000000000000



 station #            3     DB    X65
      original latitude:    42000.0000
      original longitude:    65000.0000
      original x:    65000.0000
      original y:    42000.0000
      original depth:    0.00000000      m
      horizontal distance:    15.1327457
      target x, y, z:    65000.0000       42000.0000       0.00000000
      closest estimate found:    0.00000000      m away

      receiver located in slice            0
                       in element         1540
                       in elastic domain
      at coordinates:
      xi    =   0.50000058593772634
      eta   =  -0.40000011718747813
      gamma =    1.0000000000000000
      rotation matrix:
      nu1 =    1.00000000       0.00000000       0.00000000
      nu2 =    0.00000000       1.00000000       0.00000000
      nu3 =    0.00000000       0.00000000       1.00000000
      x:    65000.000000000000
      y:    42000.000000000000
      depth:    0.0000000000000000       m
      z:    0.0000000000000000



 station #            4     DB    X70
      original latitude:    44000.0000
      original longitude:    70000.0000
      original x:    70000.0000
      original y:    44000.0000
      original depth:    0.00000000      m
      horizontal distance:    20.3960781
      target x, y, z:    70000.0000       44000.0000       0.00000000
      closest estimate found:    0.00000000      m away

      receiver located in slice            0
                       in element         1541
                       in elastic domain
      at coordinates:
      xi    =    0.0000000000000000
      eta   =   0.19999976562504579
      gamma =    1.0000000000000000
      rotation matrix:
      nu1 =    1.00000000       0.00000000       0.00000000
      nu2 =    0.00000000       1.00000000       0.00000000
      nu3 =    0.00000000       0.00000000       1.00000000
      x:    70000.000000000000
      y:    44000.000000000000
      depth:    0.0000000000000000       m
      z:    0.0000000000000000



 station #            5     DB    X75
      original latitude:    46000.0000
      original longitude:    75000.0000
      original x:    75000.0000
      original y:    46000.0000
      original depth:    0.00000000      m
      horizontal distance:    25.7099209
      target x, y, z:    75000.0000       46000.0000       0.00000000
      closest estimate found:    0.00000000      m away

      receiver located in slice            0
                       in element         1542
                       in elastic domain
      at coordinates:
      xi    =  -0.50000058593772900
      eta   =   0.79999964843756954
      gamma =    1.0000000000000000
      rotation matrix:
      nu1 =    1.00000000       0.00000000       0.00000000
      nu2 =    0.00000000       1.00000000       0.00000000
      nu3 =    0.00000000       0.00000000       1.00000000
      x:    75000.000000000000
      y:    46000.000000000000
      depth:    0.0000000000000000       m
      z:    0.0000000000000000



 station #            6     DB    X80
      original latitude:    49000.0000
      original longitude:    80000.0000
      original x:    80000.0000
      original y:    49000.0000
      original depth:    0.00000000      m
      horizontal distance:    31.3209190
      target x, y, z:    80000.0000       49000.0000       0.00000000
      closest estimate found:    0.00000000      m away

      receiver located in slice            0
                       in element         1557
                       in elastic domain
      at coordinates:
      xi    =    1.0000000000000000
      eta   =  -0.30000011718754577
      gamma =    1.0000000000000000
      rotation matrix:
      nu1 =    1.00000000       0.00000000       0.00000000
      nu2 =    0.00000000       1.00000000       0.00000000
      nu3 =    0.00000000       0.00000000       1.00000000
      x:    80000.000000000000
      y:    49000.000000000000
      depth:    0.0000000000000000       m
      z:    0.0000000000000000



 station #            7     DB    X85
      original latitude:    52000.0000
      original longitude:    85000.0000
      original x:    85000.0000
      original y:    52000.0000
      original depth:    0.00000000      m
      horizontal distance:    37.0000000
      target x, y, z:    85000.0000       52000.0000       0.00000000
      closest estimate found:    0.00000000      m away

      receiver located in slice            0
                       in element         1558
                       in elastic domain
      at coordinates:
      xi    =   0.50000058593772834
      eta   =   0.60000023437509120
      gamma =    1.0000000000000000
      rotation matrix:
      nu1 =    1.00000000       0.00000000       0.00000000
      nu2 =    0.00000000       1.00000000       0.00000000
      nu3 =    0.00000000       0.00000000       1.00000000
      x:    85000.000000000000
      y:    52000.000000000000
      depth:    0.0000000000000000       m
      z:    0.0000000000000000



 station #            8     DB    X90
      original latitude:    56000.0000
      original longitude:    90000.0000
      original x:    90000.0000
      original y:    56000.0000
      original depth:    0.00000000      m
      horizontal distance:    43.0813179
      target x, y, z:    90000.0000       56000.0000       0.00000000
      closest estimate found:    0.00000000      m away

      receiver located in slice            0
                       in element         1574
                       in elastic domain
      at coordinates:
      xi    =    0.0000000000000000
      eta   =  -0.19999976562504579
      gamma =    1.0000000000000000
      rotation matrix:
      nu1 =    1.00000000       0.00000000       0.00000000
      nu2 =    0.00000000       1.00000000       0.00000000
      nu3 =    0.00000000       0.00000000       1.00000000
      x:    90000.000000000000
      y:    56000.000000000000
      depth:    0.0000000000000000       m
      z:    0.0000000000000000



 station #            9     DB    X95
      original latitude:    60000.0000
      original longitude:    95000.0000
      original x:    95000.0000
      original y:    60000.0000
      original depth:    0.00000000      m
      horizontal distance:    49.2442894
      target x, y, z:    95000.0000       60000.0000       0.00000000
      closest estimate found:    0.00000000      m away

      receiver located in slice            0
                       in element         1575
                       in elastic domain
      at coordinates:
      xi    =  -0.50000058593772856
      eta   =    1.0000000000000000
      gamma =    1.0000000000000000
      rotation matrix:
      nu1 =    1.00000000       0.00000000       0.00000000
      nu2 =    0.00000000       1.00000000       0.00000000
      nu3 =    0.00000000       0.00000000       1.00000000
      x:    95000.000000000000
      y:    60000.000000000000
      depth:    0.0000000000000000       m
      z:    0.0000000000000000



 maximum error in location of all the receivers:    0.00000000      m

 Elapsed time for receiver detection in seconds =    1.20599999E-03

 End of receiver detection - done

 found a total of            9  receivers in all the slices

 source arrays:
   number of sources is            1
   size of source array                 =    1.43051147E-03 MB
                                        =    1.39698386E-06 GB

 seismograms:
   seismograms written by all processes

   Total number of simulation steps (NSTEP)                       =          250
   writing out seismograms at every NTSTEP_BETWEEN_OUTPUT_SEISMOS =          250
   number of subsampling steps for seismograms                    =            1
   Total number of samples for seismograms                        =          250


   maximum number of local receivers is            9  in slice            0
   size of maximum seismogram array       =    2.57492065E-02 MB
                                          =    2.51457095E-05 GB


 Total number of samples for seismograms =          250


 Simulation setup:

   no acoustic simulation
 incorporating elastic simulation
   no poroelastic simulation

   no attenuation
   no anisotropy
   no oceans
   no gravity
   no movie simulation


 preparing mass matrices
 preparing constants
 preparing wavefields
 preparing fault simulation
   no dynamic faults
   no kinematic faults
   no fault simulation
 preparing gravity
   no gravity simulation
 preparing optimized arrays
   number of regular shaped elements  :           59
   number of irregular shaped elements:         1561
   fused array done
   bandwidth test (STREAM TRIAD):
      memory accesses =    3.79690933     MB
      timing  min/max =    3.30000003E-05 s /    4.40000003E-05 s
      timing      avg =    3.88000008E-05 s
      bandwidth       =    95.5649261     GB/s


 Elapsed time for preparing timerun in seconds =    1.2229999999999949E-003

 ************
  time loop
 ************
               scheme:         Newmark

            time step:   0.159999996      s
 number of time steps:          250
 total simulated time:    40.0000000      seconds
 start time:  -8.00000000      seconds

 All processes are synchronized before the time loop

 Starting time iteration loop...

 Time step #            5
 Time:   -7.36000013      seconds
 Elapsed time in seconds =    1.4899999999999997E-002
 Elapsed time in hh:mm:ss =      0 h 00 m 00 s
 Mean elapsed time per time step in seconds =    2.98000011E-03
 Max norm displacement vector U in all slices (m) =    4.05930878E-05
 Time steps done =            5  out of          250
 Time steps remaining =          245
 Estimated remaining time in seconds =   0.730099976
 Estimated remaining time in hh:mm:ss =      0 h 00 m 00 s
 Estimated total run time in seconds =   0.745000005
 Estimated total run time in hh:mm:ss =      0 h 00 m 00 s
 We have done    2.00000000     % of that
 The run will finish approximately on (in local time): Fri Sep 19, 2025 14:13
 ************************************************************
 **** BEWARE: the above time estimates are not very reliable
 **** because fewer than 100 iterations have been performed
 ************************************************************

 Time step #          250
 Time:    31.8400002      seconds
 Elapsed time in seconds =   0.87902800000000003
 Elapsed time in hh:mm:ss =      0 h 00 m 00 s
 Mean elapsed time per time step in seconds =    3.51611199E-03
 Max norm displacement vector U in all slices (m) =    5.76220118E-02
 Time steps done =          250  out of          250
 Time steps remaining =            0
 Estimated remaining time in seconds =    0.00000000
 Estimated remaining time in hh:mm:ss =      0 h 00 m 00 s
 Estimated total run time in seconds =   0.879028022
 Estimated total run time in hh:mm:ss =      0 h 00 m 00 s
 We have done    100.000000     % of that

 Writing the seismograms
 Component: .semd
 Total number of receivers saved is            9
 Total number of time steps written:          250
 Writing the seismograms in parallel took    6.78399997E-03  seconds

 Time loop finished. Timing info:
 Total elapsed time in seconds =   0.88991600000000004
 Total elapsed time in hh:mm:ss =      0 h 00 m 00 s

 finalizing simulation


 End of the simulation
