 **********************************************
 **** Specfem 3-D Solver - MPI version f90 ****
 **********************************************

 Running Git package version of the code: v4.1.1-226-g3d986bd3
 which is Git 3d986bd39b93e0580327562c40981c85dce6c1a9
 dating 2025-08-28 18:59:46 +0200




 There are            1  MPI processes
 Processes are numbered from 0 to            0

 There is a total of            1  slices

  NDIM =            3

  NGLLX =            5
  NGLLY =            5
  NGLLZ =            5

 using single precision for the calculations

 smallest and largest possible floating-point numbers are:    1.17549435E-38   3.40282347E+38

 velocity model:   default

 Reading mesh databases...
   reads binary mesh files: proc***_external_mesh.bin
   from directory         : OUTPUT_FILES/DATABASES_MPI

   simulation w/ acoustic    domain:  F
   simulation w/ elastic     domain:  T
   simulation w/ poroelastic domain:  F

   slice 0 has:
   number of elements acoustic   :           0
   number of elements elastic    :        7500
   number of elements poroelastic:           0
   done

   total acoustic elements    :           0
   total elastic elements     :        7500
   total poroelastic elements :           0

 Mesh resolution:

 ********
 minimum and maximum number of elements
 and points in the CUBIT + SCOTCH mesh:

 NSPEC_global_min =         7500
 NSPEC_global_max =         7500
 NSPEC_global_max / NSPEC_global_min imbalance =    1.00000000      =    0.00000000      %
 NSPEC_global_sum =         7500

 NGLOB_global_min =       499041
 NGLOB_global_max =       499041
 NGLOB_global_max / NGLOB_global_min imbalance =    1.00000000      =    0.00000000      %
 NGLOB_global_sum =       499041

 If you have elements of a single type (all acoustic, all elastic, all poroelastic, and without CPML)
 in the whole mesh, then there should be no significant imbalance in the above numbers.
 Otherwise, it is normal to have imbalance in elements and points because the domain decomposer
 compensates for the different cost of different elements by partitioning them unevenly among processes.
 ********


 ********
 Model: P   velocity min,max =    2800.00000       2800.00000
 Model: S   velocity min,max =    1500.00000       1500.00000

 Model: Poisson's ratio min,max =   0.298747778      0.298747778
 ********

 *********************************************
 *** Verification of simulation parameters ***
 *********************************************

 *** Xmin and Xmax of the model =    0.00000000       100000.000
 *** Ymin and Ymax of the model =    0.00000000       80000.0000
 *** Zmin and Zmax of the model =   -60000.0000       0.00000000

 *** Max GLL point distance =    1309.30859
 *** Min GLL point distance =    690.691406
 *** Max/min ratio =    1.89564919

 *** Max element size =    4000.00000
 *** Min element size =    4000.00000
 *** Max/min ratio =    1.00000000

 *** Minimum period resolved =    3.33333349
 *** Maximum suggested time step =   0.119999997

 *** for DT :    4.0000000000000001E-002
 *** Max stability for wave velocities =   0.162156358

 Elapsed time for checking mesh resolution in seconds =    3.4720000000000029E-003
 saving VTK files for Courant number and minimum period


 ******************************************
 There is a total of            1  slices
 ******************************************


 kd-tree:
   total data points:       202500
   theoretical   number of nodes:       404993
                tree memory size:    12.3594055     MB
   actual        number of nodes:       404999
                tree memory size:    12.3595886     MB
   maximum depth   :           19
   creation timing :    2.92630047E-02 (s)


 sources:            1

 ********************
  locating sources
 ********************

 reading source information from ./DATA/FORCESOLUTION file

 no UTM projection


 source #            1
   source located in slice            0
                  in element         3738
                  in elastic domain

   using force point source:
     xi coordinate of source in that element:    0.0000000000000000
     eta coordinate of source in that element:    1.0000000000000000
     gamma coordinate of source in that element:    0.0000000000000000

     component of direction vector in East direction:    0.00000000
     component of direction vector in North direction:    0.00000000
     component of direction vector in Vertical direction:    1.00000000

     nu1 =    1.00000000       0.00000000       0.00000000
     nu2 =    0.00000000       1.00000000       0.00000000
     nu3 =    0.00000000       0.00000000       1.00000000

     at (x,y,z) coordinates =    50000.000000000000        40000.000000000000       -30000.000000000000

   source time function:
     using Ricker source time function

     using a source of dominant frequency   0.25000000000000000
     t0_ricker =    4.7999999999999998      tshift_src =    0.0000000000000000

     lambda_S at dominant frequency =    6928.2031250000000
     lambda_S at highest significant frequency =    2771.2812500000000

     half duration in frequency:   0.25000000000000000       seconds**(-1)

     time shift:    0.0000000000000000       seconds

   magnitude of the source:
     factor =    100000000000000.00

   original (requested) position of the source:

             latitude:    40000.000000000000
            longitude:    50000.000000000000

                x:    50000.000000000000
                y:    40000.000000000000
            depth:    30.000000000000000       km
   topo elevation:    0.0000000000000000

   position of the source that will be used:

                x:    50000.000000000000
                y:    40000.000000000000
            depth:    30.000000000000000       km
                z:   -30000.000000000000

   error in location of the source:    0.00000000      m



 maximum error in location of the sources:    0.00000000      m


 Elapsed time for detection of sources in seconds =    1.93000003E-03

 End of source detection - done


 receivers:

   there are            9  stations in file ./DATA/STATIONS
   saving            9  stations inside the model in file ./DATA/STATIONS_FILTERED
   excluding            0  stations located outside the model

   Total number of receivers =            9


 ********************
  locating receivers
 ********************

 reading receiver information from ./DATA/STATIONS_FILTERED file


 station #            1     DB    X55
      original latitude:    40000.0000
      original longitude:    55000.0000
      original x:    55000.0000
      original y:    40000.0000
      original depth:    0.00000000      m
      horizontal distance:    5.00000000
      target x, y, z:    55000.0000       40000.0000       0.00000000
      closest estimate found:    0.00000000      m away

      receiver located in slice            0
                       in element         7239
                       in elastic domain
      at coordinates:
      xi    =   0.49999999999999761
      eta   =    1.0000000000000000
      gamma =    1.0000000000000000
      rotation matrix:
      nu1 =    1.00000000       0.00000000       0.00000000
      nu2 =    0.00000000       1.00000000       0.00000000
      nu3 =    0.00000000       0.00000000       1.00000000
      x:    55000.000000000000
      y:    40000.000000000000
      depth:    0.0000000000000000       m
      z:    0.0000000000000000



 station #            2     DB    X60
      original latitude:    41000.0000
      original longitude:    60000.0000
      original x:    60000.0000
      original y:    41000.0000
      original depth:    0.00000000      m
      horizontal distance:    10.0498753
      target x, y, z:    60000.0000       41000.0000       0.00000000
      closest estimate found:    1.02897578E-11  m away

      receiver located in slice            0
                       in element         7265
                       in elastic domain
      at coordinates:
      xi    =    1.0000000000000000
      eta   =  -0.49999999999999767
      gamma =    1.0000000000000000
      rotation matrix:
      nu1 =    1.00000000       0.00000000       0.00000000
      nu2 =    0.00000000       1.00000000       0.00000000
      nu3 =    0.00000000       0.00000000       1.00000000
      x:    60000.000000000007
      y:    41000.000000000007
      depth:    0.0000000000000000       m
      z:    0.0000000000000000



 station #            3     DB    X65
      original latitude:    42000.0000
      original longitude:    65000.0000
      original x:    65000.0000
      original y:    42000.0000
      original depth:    0.00000000      m
      horizontal distance:    15.1327457
      target x, y, z:    65000.0000       42000.0000       0.00000000
      closest estimate found:    0.00000000      m away

      receiver located in slice            0
                       in element         7267
                       in elastic domain
      at coordinates:
      xi    =  -0.50000000000000133
      eta   =    0.0000000000000000
      gamma =    1.0000000000000000
      rotation matrix:
      nu1 =    1.00000000       0.00000000       0.00000000
      nu2 =    0.00000000       1.00000000       0.00000000
      nu3 =    0.00000000       0.00000000       1.00000000
      x:    65000.000000000000
      y:    42000.000000000000
      depth:    0.0000000000000000       m
      z:    0.0000000000000000



 station #            4     DB    X70
      original latitude:    44000.0000
      original longitude:    70000.0000
      original x:    70000.0000
      original y:    44000.0000
      original depth:    0.00000000      m
      horizontal distance:    20.3960781
      target x, y, z:    70000.0000       44000.0000       0.00000000
      closest estimate found:    0.00000000      m away

      receiver located in slice            0
                       in element         7293
                       in elastic domain
      at coordinates:
      xi    =    0.0000000000000000
      eta   =   -1.0000000000000000
      gamma =    1.0000000000000000
      rotation matrix:
      nu1 =    1.00000000       0.00000000       0.00000000
      nu2 =    0.00000000       1.00000000       0.00000000
      nu3 =    0.00000000       0.00000000       1.00000000
      x:    70000.000000000000
      y:    44000.000000000000
      depth:    0.0000000000000000       m
      z:    0.0000000000000000



 station #            5     DB    X75
      original latitude:    48000.0000
      original longitude:    75000.0000
      original x:    75000.0000
      original y:    48000.0000
      original depth:    0.00000000      m
      horizontal distance:    26.2488098
      target x, y, z:    75000.0000       48000.0000       0.00000000
      closest estimate found:    0.00000000      m away

      receiver located in slice            0
                       in element         7294
                       in elastic domain
      at coordinates:
      xi    =   0.49999999999999761
      eta   =    1.0000000000000000
      gamma =    1.0000000000000000
      rotation matrix:
      nu1 =    1.00000000       0.00000000       0.00000000
      nu2 =    0.00000000       1.00000000       0.00000000
      nu3 =    0.00000000       0.00000000       1.00000000
      x:    75000.000000000000
      y:    48000.000000000000
      depth:    0.0000000000000000       m
      z:    0.0000000000000000



 station #            6     DB    X80
      original latitude:    51000.0000
      original longitude:    80000.0000
      original x:    80000.0000
      original y:    51000.0000
      original depth:    0.00000000      m
      horizontal distance:    31.9530907
      target x, y, z:    80000.0000       51000.0000       0.00000000
      closest estimate found:    7.27595761E-12  m away

      receiver located in slice            0
                       in element         7321
                       in elastic domain
      at coordinates:
      xi    =   -1.0000000000000000
      eta   =   0.49999999999999756
      gamma =    1.0000000000000000
      rotation matrix:
      nu1 =    1.00000000       0.00000000       0.00000000
      nu2 =    0.00000000       1.00000000       0.00000000
      nu3 =    0.00000000       0.00000000       1.00000000
      x:    80000.000000000000
      y:    50999.999999999993
      depth:    0.0000000000000000       m
      z:    0.0000000000000000



 station #            7     DB    X85
      original latitude:    54000.0000
      original longitude:    85000.0000
      original x:    85000.0000
      original y:    54000.0000
      original depth:    0.00000000      m
      horizontal distance:    37.6961555
      target x, y, z:    85000.0000       54000.0000       0.00000000
      closest estimate found:    0.00000000      m away

      receiver located in slice            0
                       in element         7347
                       in elastic domain
      at coordinates:
      xi    =  -0.49999999999999772
      eta   =    3.6379788070917075E-015
      gamma =    1.0000000000000000
      rotation matrix:
      nu1 =    1.00000000       0.00000000       0.00000000
      nu2 =    0.00000000       1.00000000       0.00000000
      nu3 =    0.00000000       0.00000000       1.00000000
      x:    85000.000000000000
      y:    54000.000000000000
      depth:    0.0000000000000000       m
      z:    0.0000000000000000



 station #            8     DB    X90
      original latitude:    58000.0000
      original longitude:    90000.0000
      original x:    90000.0000
      original y:    58000.0000
      original depth:    0.00000000      m
      horizontal distance:    43.8634262
      target x, y, z:    90000.0000       58000.0000       0.00000000
      closest estimate found:    0.00000000      m away

      receiver located in slice            0
                       in element         7373
                       in elastic domain
      at coordinates:
      xi    =    0.0000000000000000
      eta   =    0.0000000000000000
      gamma =    1.0000000000000000
      rotation matrix:
      nu1 =    1.00000000       0.00000000       0.00000000
      nu2 =    0.00000000       1.00000000       0.00000000
      nu3 =    0.00000000       0.00000000       1.00000000
      x:    90000.000000000000
      y:    58000.000000000000
      depth:    0.0000000000000000       m
      z:    0.0000000000000000



 station #            9     DB    X95
      original latitude:    62000.0000
      original longitude:    95000.0000
      original x:    95000.0000
      original y:    62000.0000
      original depth:    0.00000000      m
      horizontal distance:    50.0899200
      target x, y, z:    95000.0000       62000.0000       0.00000000
      closest estimate found:    0.00000000      m away

      receiver located in slice            0
                       in element         7399
                       in elastic domain
      at coordinates:
      xi    =   0.49999999999999761
      eta   =    0.0000000000000000
      gamma =    1.0000000000000000
      rotation matrix:
      nu1 =    1.00000000       0.00000000       0.00000000
      nu2 =    0.00000000       1.00000000       0.00000000
      nu3 =    0.00000000       0.00000000       1.00000000
      x:    95000.000000000000
      y:    62000.000000000000
      depth:    0.0000000000000000       m
      z:    0.0000000000000000



 maximum error in location of all the receivers:    1.02897578E-11  m

 Elapsed time for receiver detection in seconds =    3.30400001E-03

 End of receiver detection - done

 found a total of            9  receivers in all the slices

 source arrays:
   number of sources is            1
   size of source array                 =    1.43051147E-03 MB
                                        =    1.39698386E-06 GB

 seismograms:
   seismograms written by all processes

   Total number of simulation steps (NSTEP)                       =         1000
   writing out seismograms at every NTSTEP_BETWEEN_OUTPUT_SEISMOS =         1000
   number of subsampling steps for seismograms                    =            1
   Total number of samples for seismograms                        =         1000


   maximum number of local receivers is            9  in slice            0
   size of maximum seismogram array       =   0.102996826     MB
                                          =    1.00582838E-04 GB


 Total number of samples for seismograms =         1000


 Simulation setup:

   no acoustic simulation
 incorporating elastic simulation
   no poroelastic simulation

   no attenuation
   no anisotropy
   no oceans
   no gravity
   no movie simulation


 preparing mass matrices
 preparing constants
 preparing wavefields
 preparing fault simulation
   no dynamic faults
   no kinematic faults
   no fault simulation
 preparing gravity
   no gravity simulation
 preparing optimized arrays
   number of regular shaped elements  :         7500
   number of irregular shaped elements:            0
   fused array done
   bandwidth test (STREAM TRIAD):
      memory accesses =    17.1332130     MB
      timing  min/max =    1.61999997E-04 s /    4.33999987E-04 s
      timing      avg =    2.33300001E-04 s
      bandwidth       =    71.7173309     GB/s


 Elapsed time for preparing timerun in seconds =    7.7260000000000106E-003

 ************
  time loop
 ************
               scheme:         Newmark

            time step:    3.99999991E-02  s
 number of time steps:         1000
 total simulated time:    40.0000000      seconds
 start time:  -4.80000019      seconds

 All processes are synchronized before the time loop

 Starting time iteration loop...

 Time step #            5
 Time:   -4.63999987      seconds
 Elapsed time in seconds =    4.8545999999999978E-002
 Elapsed time in hh:mm:ss =      0 h 00 m 00 s
 Mean elapsed time per time step in seconds =    9.70919989E-03
 Max norm displacement vector U in all slices (m) =    1.06748857E-05
 Time steps done =            5  out of         1000
 Time steps remaining =          995
 Estimated remaining time in seconds =    9.66065407
 Estimated remaining time in hh:mm:ss =      0 h 00 m 09 s
 Estimated total run time in seconds =    9.70919991
 Estimated total run time in hh:mm:ss =      0 h 00 m 09 s
 We have done   0.500000000     % of that
 The run will finish approximately on (in local time): Wed Sep 17, 2025 14:00
 ************************************************************
 **** BEWARE: the above time estimates are not very reliable
 **** because fewer than 100 iterations have been performed
 ************************************************************

 Time step #          500
 Time:    15.1599998      seconds
 Elapsed time in seconds =    6.0026999999999999
 Elapsed time in hh:mm:ss =      0 h 00 m 06 s
 Mean elapsed time per time step in seconds =    1.20053999E-02
 Max norm displacement vector U in all slices (m) =    6.74560964E-02
 Time steps done =          500  out of         1000
 Time steps remaining =          500
 Estimated remaining time in seconds =    6.00269985
 Estimated remaining time in hh:mm:ss =      0 h 00 m 06 s
 Estimated total run time in seconds =    12.0053997
 Estimated total run time in hh:mm:ss =      0 h 00 m 12 s
 We have done    50.0000000     % of that
 The run will finish approximately on (in local time): Wed Sep 17, 2025 14:00

 Time step #         1000
 Time:    35.1599998      seconds
 Elapsed time in seconds =    12.037444000000001
 Elapsed time in hh:mm:ss =      0 h 00 m 12 s
 Mean elapsed time per time step in seconds =    1.20374439E-02
 Max norm displacement vector U in all slices (m) =    5.89921549E-02
 Time steps done =         1000  out of         1000
 Time steps remaining =            0
 Estimated remaining time in seconds =    0.00000000
 Estimated remaining time in hh:mm:ss =      0 h 00 m 00 s
 Estimated total run time in seconds =    12.0374441
 Estimated total run time in hh:mm:ss =      0 h 00 m 12 s
 We have done    100.000000     % of that

 Writing the seismograms
 Component: .semd
 Total number of receivers saved is            9
 Total number of time steps written:         1000
 Writing the seismograms in parallel took    2.04409994E-02  seconds

 Time loop finished. Timing info:
 Total elapsed time in seconds =    12.070016000000001
 Total elapsed time in hh:mm:ss =      0 h 00 m 12 s

 finalizing simulation


 End of the simulation
